ligand_all/7cki_9E0_A_1.pdb
     RDKit          3D

  0  0  0  0  0  0  0  0  0  0999 V3000
M  V30 BEGIN CTAB
M  V30 COUNTS 47 51 0 0 1
M  V30 BEGIN ATOM
M  V30 1 C 1.697441 7.902386 -3.943997 0
M  V30 2 C 0.221725 7.564639 -3.918614 0
M  V30 3 C 2.677358 6.912355 -4.379784 0
M  V30 4 C 2.283560 5.633310 -4.683903 0
M  V30 5 C -0.186279 6.211773 -4.278768 0
M  V30 6 C 0.877140 5.241979 -4.571554 0
M  V30 7 C 0.712464 3.828122 -4.665088 0 CFG=2
M  V30 8 C 2.013371 3.469013 -5.188871 0
M  V30 9 C -1.849843 4.184955 -4.802908 0 CFG=2
M  V30 10 C -0.591941 3.434366 -5.237700 0 CFG=1
M  V30 11 C -2.879464 4.099907 -5.862257 0
M  V30 12 C -0.501319 2.435695 -6.199585 0
M  V30 13 N 2.986732 4.576602 -5.024972 0
M  V30 14 O -2.691789 4.201907 -7.087814 0
M  V30 15 O -4.181370 3.977114 -5.407852 0
M  V30 16 S -1.834817 6.033029 -4.479995 0
M  V30 17 P -8.883418 1.306159 -1.680005 0
M  V30 18 O -9.136125 -0.047633 -1.233328 0
M  V30 19 O -7.887228 2.045672 -0.869619 0
M  V30 20 O -10.191667 2.168014 -1.814433 0
M  V30 21 P -7.134355 0.322929 -3.739204 0 CFG=2
M  V30 22 O -6.854246 0.966362 -5.016500 0
M  V30 23 O -7.407989 -1.102987 -3.758382 0
M  V30 24 O -8.266314 1.203292 -3.127048 0
M  V30 25 P -4.541582 1.138910 -2.951247 0 CFG=2
M  V30 26 O -4.399063 2.315995 -1.971281 0
M  V30 27 O -4.213496 1.404152 -4.331071 0
M  V30 28 O -5.885415 0.441110 -2.597176 0
M  V30 29 O -3.543588 -0.112384 -2.543294 0
M  V30 30 C -2.628165 -0.226849 -1.621766 0
M  V30 31 C -1.502195 -1.199709 -2.036319 0 CFG=1
M  V30 32 O -1.947348 -2.568539 -1.775290 0
M  V30 33 C -1.154785 -1.090050 -3.532836 0 CFG=1
M  V30 34 O 0.264429 -0.815353 -3.629962 0
M  V30 35 C -1.451035 -2.435849 -4.104023 0 CFG=1
M  V30 36 O -0.369587 -2.969291 -4.897248 0
M  V30 37 C -1.695563 -3.381902 -2.889967 0 CFG=2
M  V30 38 N -2.893991 -4.223522 -3.135785 0
M  V30 39 C -4.158801 -3.835164 -3.171824 0
M  V30 40 N -5.001741 -4.821020 -3.427667 0
M  V30 41 C -4.250076 -5.894206 -3.533111 0
M  V30 42 C -4.495188 -7.286916 -3.776736 0
M  V30 43 N -5.715580 -7.810052 -3.973738 0
M  V30 44 N -3.403440 -8.221626 -3.842415 0
M  V30 45 C -2.120687 -7.707428 -3.644233 0
M  V30 46 N -1.819374 -6.425023 -3.410773 0
M  V30 47 C -2.865578 -5.500957 -3.347693 0
M  V30 END ATOM
M  V30 BEGIN BOND
M  V30 1 2 1 3
M  V30 2 1 2 1
M  V30 3 1 4 13
M  V30 4 1 4 3
M  V30 5 2 5 2
M  V30 6 1 5 6
M  V30 7 2 6 4
M  V30 8 1 7 6
M  V30 9 1 7 8 CFG=3
M  V30 10 1 8 13
M  V30 11 1 9 11 CFG=3
M  V30 12 1 10 12 CFG=3
M  V30 13 1 10 9
M  V30 14 1 10 7
M  V30 15 1 11 15
M  V30 16 2 14 11
M  V30 17 1 16 9
M  V30 18 1 16 5
M  V30 19 1 17 20
M  V30 20 1 17 19
M  V30 21 2 18 17
M  V30 22 2 21 23
M  V30 23 1 21 24
M  V30 24 1 21 28
M  V30 25 1 21 22
M  V30 26 1 24 17
M  V30 27 2 25 27
M  V30 28 1 25 29
M  V30 29 1 25 26
M  V30 30 1 28 25
M  V30 31 1 30 29
M  V30 32 1 31 30 CFG=3
M  V30 33 1 31 33
M  V30 34 1 32 37
M  V30 35 1 32 31
M  V30 36 1 33 34 CFG=1
M  V30 37 1 35 33
M  V30 38 1 35 36 CFG=1
M  V30 39 1 37 38 CFG=3
M  V30 40 1 37 35
M  V30 41 1 39 38
M  V30 42 2 40 39
M  V30 43 1 41 40
M  V30 44 2 41 47
M  V30 45 1 42 41
M  V30 46 1 43 42
M  V30 47 2 44 42
M  V30 48 1 44 45
M  V30 49 2 45 46
M  V30 50 1 46 47
M  V30 51 1 47 38
M  V30 END BOND
M  V30 BEGIN COLLECTION
M  V30 MDLV30/STEABS ATOMS=(0)
M  V30 END COLLECTION
M  V30 END CTAB
M  END
$$$$
